* NGSPICE file created from ram_single.ext - technology: scmos

* Black-box entry subcircuit for FILL abstract view
.subckt FILL gnd vdd
.ends

* Black-box entry subcircuit for NAND2X1 abstract view
.subckt NAND2X1 A B gnd Y vdd
.ends

* Black-box entry subcircuit for OAI21X1 abstract view
.subckt OAI21X1 A B C gnd Y vdd
.ends

* Black-box entry subcircuit for INVX1 abstract view
.subckt INVX1 A gnd Y vdd
.ends

* Black-box entry subcircuit for MUX2X1 abstract view
.subckt MUX2X1 A B S gnd Y vdd
.ends

* Black-box entry subcircuit for DFFPOSX1 abstract view
.subckt DFFPOSX1 Q CLK D gnd vdd
.ends

* Black-box entry subcircuit for AOI21X1 abstract view
.subckt AOI21X1 A B C gnd Y vdd
.ends

* Black-box entry subcircuit for AOI22X1 abstract view
.subckt AOI22X1 A B C D gnd Y vdd
.ends

* Black-box entry subcircuit for OAI22X1 abstract view
.subckt OAI22X1 A B C D gnd Y vdd
.ends

* Black-box entry subcircuit for BUFX4 abstract view
.subckt BUFX4 A gnd Y vdd
.ends

* Black-box entry subcircuit for NOR2X1 abstract view
.subckt NOR2X1 A B gnd Y vdd
.ends

* Black-box entry subcircuit for INVX8 abstract view
.subckt INVX8 A gnd Y vdd
.ends

* Black-box entry subcircuit for CLKBUF1 abstract view
.subckt CLKBUF1 A gnd Y vdd
.ends

* Black-box entry subcircuit for NAND3X1 abstract view
.subckt NAND3X1 A B C gnd Y vdd
.ends

* Black-box entry subcircuit for INVX4 abstract view
.subckt INVX4 A gnd Y vdd
.ends

* Black-box entry subcircuit for BUFX2 abstract view
.subckt BUFX2 A gnd Y vdd
.ends

* Black-box entry subcircuit for INVX2 abstract view
.subckt INVX2 A gnd Y vdd
.ends

* Black-box entry subcircuit for OR2X2 abstract view
.subckt OR2X2 A B gnd Y vdd
.ends

.subckt ram_single vdd gnd a[0] a[1] a[2] a[3] a[4] a[5] a[6] d[0] d[1] d[2] d[3]
+ d[4] d[5] d[6] d[7] we clk q[0] q[1] q[2] q[3] q[4] q[5] q[6] q[7]
XFILL_9_6_0 gnd vdd FILL
XNAND2X1_580 BUFX4_261/Y NOR2X1_38/A gnd NAND2X1_580/Y vdd NAND2X1
XNAND2X1_591 MUX2X1_4/S NAND2X1_591/B gnd NAND2X1_591/Y vdd NAND2X1
XFILL_17_5_0 gnd vdd FILL
XFILL_41_3_0 gnd vdd FILL
XFILL_42_8_1 gnd vdd FILL
XOAI21X1_382 NAND2X1_81/Y BUFX4_113/Y OAI21X1_382/C gnd OAI21X1_382/Y vdd OAI21X1
XOAI21X1_371 NOR2X1_22/B BUFX4_386/Y NAND2X1_588/B gnd OAI21X1_372/C vdd OAI21X1
XINVX1_402 INVX1_402/A gnd INVX1_402/Y vdd INVX1
XOAI21X1_360 BUFX4_377/Y NAND2X1_79/Y OAI21X1_360/C gnd OAI21X1_360/Y vdd OAI21X1
XINVX1_424 INVX1_424/A gnd INVX1_424/Y vdd INVX1
XOAI21X1_393 NOR2X1_32/B BUFX4_385/Y OAI21X1_393/C gnd OAI21X1_393/Y vdd OAI21X1
XINVX1_435 INVX1_435/A gnd INVX1_435/Y vdd INVX1
XINVX1_413 INVX1_413/A gnd INVX1_413/Y vdd INVX1
XINVX1_446 INVX1_446/A gnd INVX1_446/Y vdd INVX1
XINVX1_468 INVX1_468/A gnd INVX1_468/Y vdd INVX1
XINVX1_457 INVX1_457/A gnd INVX1_457/Y vdd INVX1
XINVX1_479 INVX1_479/A gnd INVX1_479/Y vdd INVX1
XFILL_32_3_0 gnd vdd FILL
XFILL_33_8_1 gnd vdd FILL
XOAI21X1_1612 NOR2X1_2/B BUFX4_348/Y NAND2X1_565/B gnd OAI21X1_1612/Y vdd OAI21X1
XOAI21X1_1623 INVX1_334/Y NOR2X1_358/Y NAND2X1_849/Y gnd DFFPOSX1_278/D vdd OAI21X1
XOAI21X1_1601 BUFX4_376/Y NAND2X1_842/Y OAI21X1_1600/Y gnd DFFPOSX1_264/D vdd OAI21X1
XOAI21X1_1645 NAND2X1_860/Y BUFX4_97/Y OAI21X1_1645/C gnd DFFPOSX1_310/D vdd OAI21X1
XOAI21X1_1656 BUFX4_412/Y BUFX4_344/Y NAND2X1_430/B gnd OAI21X1_1657/C vdd OAI21X1
XOAI21X1_1634 INVX4_3/A BUFX4_346/Y INVX1_17/A gnd OAI21X1_1634/Y vdd OAI21X1
XOAI21X1_1689 BUFX4_377/Y NAND2X1_871/Y OAI21X1_1689/C gnd DFFPOSX1_344/D vdd OAI21X1
XOAI21X1_1678 BUFX4_406/Y OAI21X1_5/B INVX1_146/A gnd OAI21X1_1679/C vdd OAI21X1
XOAI21X1_1667 INVX1_81/Y NOR2X1_378/Y NAND2X1_864/Y gnd OAI21X1_1667/Y vdd OAI21X1
XFILL_23_3_0 gnd vdd FILL
XFILL_24_8_1 gnd vdd FILL
XFILL_6_4_0 gnd vdd FILL
XMUX2X1_17 MUX2X1_17/A MUX2X1_15/Y BUFX4_60/Y gnd MUX2X1_17/Y vdd MUX2X1
XMUX2X1_28 MUX2X1_27/Y MUX2X1_28/B MUX2X1_42/S gnd MUX2X1_28/Y vdd MUX2X1
XMUX2X1_39 MUX2X1_38/Y MUX2X1_39/B BUFX4_357/Y gnd MUX2X1_39/Y vdd MUX2X1
XFILL_15_8_1 gnd vdd FILL
XFILL_14_3_0 gnd vdd FILL
XINVX1_210 INVX1_210/A gnd INVX1_210/Y vdd INVX1
XOAI21X1_190 BUFX4_113/Y NAND2X1_22/Y OAI21X1_190/C gnd OAI21X1_190/Y vdd OAI21X1
XDFFPOSX1_509 NOR2X1_37/A CLKBUF1_24/Y AOI21X1_29/Y gnd vdd DFFPOSX1
XINVX1_221 INVX1_221/A gnd INVX1_221/Y vdd INVX1
XINVX1_243 INVX1_243/A gnd INVX1_243/Y vdd INVX1
XINVX1_232 INVX1_232/A gnd INVX1_232/Y vdd INVX1
XINVX1_254 INVX1_254/A gnd INVX1_254/Y vdd INVX1
XINVX1_276 INVX1_276/A gnd INVX1_276/Y vdd INVX1
XINVX1_265 INVX1_265/A gnd INVX1_265/Y vdd INVX1
XINVX1_298 INVX1_298/A gnd INVX1_298/Y vdd INVX1
XINVX1_287 INVX1_287/A gnd INVX1_287/Y vdd INVX1
XNAND2X1_21 INVX8_10/A INVX1_1/Y gnd NAND2X1_21/Y vdd NAND2X1
XNAND2X1_32 INVX8_3/A NOR2X1_21/Y gnd NAND2X1_32/Y vdd NAND2X1
XNAND2X1_43 BUFX4_447/Y NOR2X1_31/Y gnd NAND2X1_43/Y vdd NAND2X1
XNAND2X1_10 BUFX4_444/Y NOR2X1_1/Y gnd NAND2X1_10/Y vdd NAND2X1
XNAND2X1_54 BUFX4_448/Y NOR2X1_41/Y gnd NAND2X1_54/Y vdd NAND2X1
XNAND2X1_65 BUFX4_427/Y NOR2X1_51/Y gnd NAND2X1_65/Y vdd NAND2X1
XNAND2X1_76 BUFX4_428/Y NOR2X1_61/Y gnd NAND2X1_76/Y vdd NAND2X1
XNAND2X1_87 INVX8_5/A NOR2X1_71/Y gnd NAND2X1_87/Y vdd NAND2X1
XNAND2X1_98 AOI22X1_9/D BUFX4_292/Y gnd BUFX4_294/A vdd NAND2X1
XFILL_35_1 gnd vdd FILL
XAOI21X1_214 BUFX4_376/Y NOR2X1_256/B NOR2X1_263/Y gnd DFFPOSX1_16/D vdd AOI21X1
XAOI21X1_225 AOI21X1_3/A NOR2X1_279/B NOR2X1_278/Y gnd DFFPOSX1_19/D vdd AOI21X1
XAOI21X1_203 AOI21X1_203/A AOI21X1_203/B BUFX4_364/Y gnd OAI21X1_827/A vdd AOI21X1
XAOI21X1_236 BUFX4_96/Y NOR2X1_289/B NOR2X1_291/Y gnd DFFPOSX1_62/D vdd AOI21X1
XAOI21X1_258 BUFX4_297/Y NOR2X1_325/B NOR2X1_326/Y gnd AOI21X1_258/Y vdd AOI21X1
XAOI21X1_247 BUFX4_125/Y NOR2X1_315/B NOR2X1_312/Y gnd AOI21X1_247/Y vdd AOI21X1
XAOI22X1_41 AOI22X1_41/A BUFX4_321/Y BUFX4_288/Y MUX2X1_198/Y gnd AOI22X1_41/Y vdd
+ AOI22X1
XAOI22X1_30 MUX2X1_141/Y BUFX4_354/Y BUFX4_155/Y AOI22X1_30/D gnd AOI22X1_30/Y vdd
+ AOI22X1
XAOI21X1_269 BUFX4_279/Y NOR2X1_338/B NOR2X1_339/Y gnd AOI21X1_269/Y vdd AOI21X1
XAOI22X1_74 AOI22X1_74/A AOI22X1_9/A NAND2X1_5/B AOI22X1_74/D gnd AOI22X1_74/Y vdd
+ AOI22X1
XAOI22X1_63 AOI22X1_63/A BUFX4_323/Y AOI22X1_6/C MUX2X1_306/Y gnd AOI22X1_63/Y vdd
+ AOI22X1
XAOI22X1_52 AOI22X1_52/A AOI22X1_7/B BUFX4_159/Y MUX2X1_252/Y gnd AOI22X1_52/Y vdd
+ AOI22X1
XOAI21X1_1431 BUFX4_151/Y BUFX4_390/Y NAND2X1_418/B gnd OAI21X1_1431/Y vdd OAI21X1
XOAI21X1_1420 BUFX4_99/Y NAND2X1_814/Y OAI21X1_1420/C gnd OAI21X1_1420/Y vdd OAI21X1
XOAI21X1_1464 NAND2X1_832/Y BUFX4_305/Y OAI21X1_1464/C gnd DFFPOSX1_180/D vdd OAI21X1
XOAI21X1_1475 BUFX4_417/Y BUFX4_393/Y NAND2X1_283/B gnd OAI21X1_1476/C vdd OAI21X1
XOAI21X1_1442 INVX1_70/Y NOR2X1_321/Y NAND2X1_817/Y gnd OAI21X1_1442/Y vdd OAI21X1
XOAI21X1_1453 INVX1_263/Y NOR2X1_331/Y NAND2X1_828/Y gnd OAI21X1_1453/Y vdd OAI21X1
XOAI21X1_1486 BUFX4_286/Y NAND2X1_833/Y OAI21X1_1485/Y gnd OAI21X1_1486/Y vdd OAI21X1
XOAI21X1_1497 NOR2X1_61/B BUFX4_94/Y INVX1_265/A gnd OAI21X1_1498/C vdd OAI21X1
XDFFPOSX1_1027 BUFX2_3/A CLKBUF1_64/Y NAND2X1_409/Y gnd vdd DFFPOSX1
XDFFPOSX1_1005 NOR2X1_224/A CLKBUF1_97/Y AOI21X1_182/Y gnd vdd DFFPOSX1
XDFFPOSX1_1016 INVX1_508/A CLKBUF1_59/Y OAI21X1_798/Y gnd vdd DFFPOSX1
XOAI22X1_3 OAI22X1_3/A INVX1_15/Y INVX1_16/Y OR2X2_1/Y gnd OAI22X1_3/Y vdd OAI22X1
XFILL_47_7_1 gnd vdd FILL
XFILL_46_2_0 gnd vdd FILL
XFILL_30_6_1 gnd vdd FILL
XDFFPOSX1_328 INVX1_465/A CLKBUF1_83/Y DFFPOSX1_328/D gnd vdd DFFPOSX1
XDFFPOSX1_306 INVX1_80/A CLKBUF1_12/Y OAI21X1_1637/Y gnd vdd DFFPOSX1
XDFFPOSX1_317 NAND2X1_499/B CLKBUF1_25/Y OAI21X1_1659/Y gnd vdd DFFPOSX1
XDFFPOSX1_339 INVX1_146/A CLKBUF1_99/Y DFFPOSX1_339/D gnd vdd DFFPOSX1
XNAND2X1_409 AOI22X1_24/Y AOI22X1_29/Y gnd NAND2X1_409/Y vdd NAND2X1
XFILL_37_2_0 gnd vdd FILL
XFILL_38_7_1 gnd vdd FILL
XBUFX4_382 BUFX4_385/A gnd INVX2_3/A vdd BUFX4
XBUFX4_360 a[2] gnd MUX2X1_48/S vdd BUFX4
XBUFX4_371 INVX8_15/Y gnd BUFX4_371/Y vdd BUFX4
XBUFX4_393 BUFX4_392/A gnd BUFX4_393/Y vdd BUFX4
XOAI21X1_915 INVX1_127/Y BUFX4_216/Y NAND2X1_343/Y gnd MUX2X1_92/B vdd OAI21X1
XFILL_20_1_0 gnd vdd FILL
XFILL_21_6_1 gnd vdd FILL
XOAI21X1_904 INVX1_116/Y BUFX4_194/Y OAI21X1_904/C gnd MUX2X1_83/A vdd OAI21X1
XOAI21X1_926 INVX1_138/Y BUFX4_238/Y NAND2X1_354/Y gnd MUX2X1_100/A vdd OAI21X1
XOAI21X1_937 INVX1_149/Y BUFX4_260/Y OAI21X1_937/C gnd MUX2X1_109/B vdd OAI21X1
XOAI21X1_948 INVX1_160/Y MUX2X1_5/S OAI21X1_948/C gnd MUX2X1_116/A vdd OAI21X1
XOAI21X1_959 INVX1_171/Y BUFX4_205/Y OAI21X1_959/C gnd MUX2X1_125/B vdd OAI21X1
XDFFPOSX1_840 INVX1_497/A CLKBUF1_81/Y OAI21X1_637/Y gnd vdd DFFPOSX1
XOAI21X1_1272 INVX1_484/Y BUFX4_237/Y NAND2X1_727/Y gnd MUX2X1_359/A vdd OAI21X1
XOAI21X1_1261 INVX1_473/Y BUFX4_215/Y NAND2X1_715/Y gnd MUX2X1_352/B vdd OAI21X1
XOAI21X1_1283 INVX1_495/Y BUFX4_259/Y NAND2X1_739/Y gnd MUX2X1_368/B vdd OAI21X1
XOAI21X1_1250 INVX1_462/Y BUFX4_193/Y NAND2X1_704/Y gnd MUX2X1_343/A vdd OAI21X1
XDFFPOSX1_851 INVX1_178/A CLKBUF1_49/Y OAI21X1_655/Y gnd vdd DFFPOSX1
XDFFPOSX1_884 INVX1_244/A CLKBUF1_15/Y OAI21X1_670/Y gnd vdd DFFPOSX1
XDFFPOSX1_873 MUX2X1_11/A CLKBUF1_19/Y AOI21X1_126/Y gnd vdd DFFPOSX1
XOAI21X1_1294 INVX1_506/Y MUX2X1_4/S NAND2X1_750/Y gnd MUX2X1_376/A vdd OAI21X1
XDFFPOSX1_862 NOR2X1_152/A CLKBUF1_7/Y AOI21X1_122/Y gnd vdd DFFPOSX1
XDFFPOSX1_895 NOR2X1_175/A CLKBUF1_20/Y AOI21X1_141/Y gnd vdd DFFPOSX1
XFILL_4_7_1 gnd vdd FILL
XFILL_28_2_0 gnd vdd FILL
XFILL_29_7_1 gnd vdd FILL
XFILL_3_2_0 gnd vdd FILL
XOAI21X1_19 BUFX4_367/Y BUFX4_317/Y OAI21X1_19/C gnd OAI21X1_20/C vdd OAI21X1
XFILL_11_1_0 gnd vdd FILL
XFILL_12_6_1 gnd vdd FILL
XFILL_19_2_0 gnd vdd FILL
XDFFPOSX1_103 INVX1_387/A CLKBUF1_89/Y OAI21X1_1375/Y gnd vdd DFFPOSX1
XDFFPOSX1_114 INVX1_68/A CLKBUF1_32/Y DFFPOSX1_114/D gnd vdd DFFPOSX1
XDFFPOSX1_125 NAND2X1_486/B CLKBUF1_20/Y OAI21X1_1402/Y gnd vdd DFFPOSX1
XDFFPOSX1_136 INVX1_453/A CLKBUF1_102/Y OAI21X1_1424/Y gnd vdd DFFPOSX1
XDFFPOSX1_169 NOR2X1_333/A CLKBUF1_24/Y AOI21X1_263/Y gnd vdd DFFPOSX1
XDFFPOSX1_158 NOR2X1_328/A CLKBUF1_61/Y AOI21X1_260/Y gnd vdd DFFPOSX1
XDFFPOSX1_147 INVX1_134/A CLKBUF1_98/Y DFFPOSX1_147/D gnd vdd DFFPOSX1
XNAND2X1_206 BUFX4_326/Y NOR2X1_228/Y gnd NAND2X1_206/Y vdd NAND2X1
XNAND2X1_217 BUFX4_205/Y NAND2X1_217/B gnd OAI21X1_805/C vdd NAND2X1
XNAND2X1_239 BUFX4_233/Y DFFPOSX1_73/Q gnd OAI21X1_823/C vdd NAND2X1
XNAND2X1_228 BUFX4_221/Y NOR2X1_13/A gnd OAI21X1_816/C vdd NAND2X1
XBUFX4_190 BUFX4_24/Y gnd BUFX4_190/Y vdd BUFX4
XNOR2X1_261 NOR2X1_261/A NOR2X1_256/B gnd NOR2X1_261/Y vdd NOR2X1
XNOR2X1_250 MUX2X1_84/S INVX4_1/Y gnd AOI22X1_1/B vdd NOR2X1
XNOR2X1_272 NOR2X1_272/A NOR2X1_265/Y gnd NOR2X1_272/Y vdd NOR2X1
XNOR2X1_294 INVX4_2/Y NOR2X1_294/B gnd INVX8_10/A vdd NOR2X1
XNOR2X1_283 NOR2X1_283/A NOR2X1_279/B gnd NOR2X1_283/Y vdd NOR2X1
XOAI21X1_701 BUFX4_146/Y BUFX4_67/Y NAND2X1_607/B gnd OAI21X1_702/C vdd OAI21X1
XOAI21X1_712 INVX1_438/Y NOR2X1_177/Y NAND2X1_181/Y gnd OAI21X1_712/Y vdd OAI21X1
XOAI21X1_723 INVX1_248/Y NOR2X1_199/Y OAI21X1_723/C gnd OAI21X1_723/Y vdd OAI21X1
XOAI21X1_767 BUFX4_302/Y OAI21X1_761/B OAI21X1_767/C gnd OAI21X1_767/Y vdd OAI21X1
XOAI21X1_734 BUFX4_455/Y BUFX4_440/Y INVX1_249/A gnd OAI21X1_735/C vdd OAI21X1
XOAI21X1_745 BUFX4_130/Y OAI21X1_757/B OAI21X1_745/C gnd OAI21X1_745/Y vdd OAI21X1
XOAI21X1_756 NOR2X1_72/B INVX2_5/A NAND2X1_680/B gnd OAI21X1_757/C vdd OAI21X1
XOAI21X1_778 BUFX4_308/Y BUFX4_438/Y INVX1_123/A gnd OAI21X1_779/C vdd OAI21X1
XOAI21X1_789 BUFX4_281/Y NAND2X1_201/Y OAI21X1_789/C gnd OAI21X1_789/Y vdd OAI21X1
XMUX2X1_201 MUX2X1_201/A MUX2X1_201/B MUX2X1_69/S gnd AOI22X1_42/A vdd MUX2X1
XMUX2X1_223 MUX2X1_223/A MUX2X1_223/B BUFX4_80/Y gnd MUX2X1_225/B vdd MUX2X1
XMUX2X1_212 MUX2X1_212/A MUX2X1_212/B BUFX4_49/Y gnd MUX2X1_213/A vdd MUX2X1
XMUX2X1_245 MUX2X1_245/A MUX2X1_245/B BUFX4_80/Y gnd MUX2X1_245/Y vdd MUX2X1
XOAI21X1_1080 INVX1_292/Y BUFX4_249/Y NAND2X1_520/Y gnd MUX2X1_215/A vdd OAI21X1
XMUX2X1_256 MUX2X1_256/A MUX2X1_256/B BUFX4_63/Y gnd MUX2X1_256/Y vdd MUX2X1
XMUX2X1_234 MUX2X1_233/Y MUX2X1_232/Y MUX2X1_69/S gnd MUX2X1_234/Y vdd MUX2X1
XOAI21X1_1091 INVX1_303/Y BUFX4_271/Y NAND2X1_532/Y gnd MUX2X1_224/B vdd OAI21X1
XDFFPOSX1_692 INVX1_232/A CLKBUF1_47/Y OAI21X1_488/Y gnd vdd DFFPOSX1
XDFFPOSX1_670 NAND2X1_591/B CLKBUF1_38/Y OAI21X1_444/Y gnd vdd DFFPOSX1
XDFFPOSX1_681 NAND2X1_265/B CLKBUF1_96/Y OAI21X1_466/Y gnd vdd DFFPOSX1
XMUX2X1_278 MUX2X1_278/A MUX2X1_278/B BUFX4_60/Y gnd MUX2X1_279/A vdd MUX2X1
XMUX2X1_267 MUX2X1_266/Y MUX2X1_267/B MUX2X1_69/S gnd MUX2X1_267/Y vdd MUX2X1
XMUX2X1_289 MUX2X1_289/A MUX2X1_289/B INVX4_1/A gnd MUX2X1_291/B vdd MUX2X1
XNAND2X1_773 BUFX4_430/Y NOR2X1_264/Y gnd NAND2X1_773/Y vdd NAND2X1
XNAND2X1_751 MUX2X1_5/S NOR2X1_227/A gnd NAND2X1_751/Y vdd NAND2X1
XNAND2X1_762 BUFX4_137/Y NOR2X1_254/Y gnd NAND2X1_762/Y vdd NAND2X1
XNAND2X1_740 BUFX4_260/Y NOR2X1_143/A gnd NAND2X1_740/Y vdd NAND2X1
XNAND2X1_784 BUFX4_449/Y NOR2X1_284/Y gnd NAND2X1_784/Y vdd NAND2X1
XNAND2X1_795 BUFX4_450/Y NOR2X1_297/Y gnd NAND2X1_795/Y vdd NAND2X1
XFILL_44_5_1 gnd vdd FILL
XFILL_43_0_0 gnd vdd FILL
XBUFX4_30 a[0] gnd BUFX4_30/Y vdd BUFX4
XBUFX4_52 BUFX4_52/A gnd BUFX4_52/Y vdd BUFX4
XBUFX4_41 BUFX4_41/A gnd BUFX4_41/Y vdd BUFX4
XBUFX4_85 BUFX4_84/A gnd BUFX4_85/Y vdd BUFX4
XBUFX4_96 INVX8_7/Y gnd BUFX4_96/Y vdd BUFX4
XBUFX4_63 BUFX4_62/A gnd BUFX4_63/Y vdd BUFX4
XBUFX4_74 a[1] gnd BUFX4_3/A vdd BUFX4
XFILL_34_0_0 gnd vdd FILL
XFILL_35_5_1 gnd vdd FILL
XFILL_1_5_1 gnd vdd FILL
XFILL_25_0_0 gnd vdd FILL
XFILL_26_5_1 gnd vdd FILL
XFILL_0_0_0 gnd vdd FILL
XINVX8_11 INVX8_11/A gnd INVX8_11/Y vdd INVX8
XINVX1_6 INVX1_6/A gnd INVX1_6/Y vdd INVX1
XOAI21X1_531 BUFX4_150/Y NOR2X1_91/A NAND2X1_318/B gnd OAI21X1_532/C vdd OAI21X1
XOAI21X1_520 BUFX4_299/Y NAND2X1_99/Y OAI21X1_520/C gnd OAI21X1_520/Y vdd OAI21X1
XOAI21X1_564 INVX1_236/Y NOR2X1_101/Y NAND2X1_120/Y gnd OAI21X1_564/Y vdd OAI21X1
XOAI21X1_575 NOR2X1_1/B BUFX4_107/Y INVX1_237/A gnd OAI21X1_576/C vdd OAI21X1
XOAI21X1_542 BUFX4_281/Y OAI21X1_544/B OAI21X1_542/C gnd OAI21X1_542/Y vdd OAI21X1
XOAI21X1_553 INVX1_59/Y NOR2X1_91/Y OAI21X1_553/C gnd OAI21X1_553/Y vdd OAI21X1
XOAI21X1_586 BUFX4_130/Y OAI21X1_590/B OAI21X1_586/C gnd OAI21X1_586/Y vdd OAI21X1
XOAI21X1_597 BUFX4_148/Y INVX1_3/A OAI21X1_597/C gnd OAI21X1_598/C vdd OAI21X1
XFILL_9_6_1 gnd vdd FILL
XFILL_8_1_0 gnd vdd FILL
XNAND2X1_570 BUFX4_241/Y NAND2X1_570/B gnd NAND2X1_570/Y vdd NAND2X1
XNAND2X1_581 AOI22X1_52/Y AOI22X1_53/Y gnd AOI22X1_54/D vdd NAND2X1
XNAND2X1_592 MUX2X1_8/S NAND2X1_592/B gnd NAND2X1_592/Y vdd NAND2X1
XFILL_16_0_0 gnd vdd FILL
XFILL_17_5_1 gnd vdd FILL
XFILL_41_3_1 gnd vdd FILL
XOAI21X1_350 BUFX4_109/Y NAND2X1_79/Y OAI21X1_350/C gnd OAI21X1_350/Y vdd OAI21X1
XOAI21X1_361 NOR2X1_22/B NOR2X1_61/A NAND2X1_261/B gnd OAI21X1_362/C vdd OAI21X1
XOAI21X1_383 BUFX4_171/Y NOR2X1_61/A INVX1_228/A gnd OAI21X1_383/Y vdd OAI21X1
XOAI21X1_372 BUFX4_102/Y NAND2X1_80/Y OAI21X1_372/C gnd OAI21X1_372/Y vdd OAI21X1
XINVX1_403 INVX1_403/A gnd INVX1_403/Y vdd INVX1
XOAI21X1_394 BUFX4_127/Y NAND2X1_82/Y OAI21X1_393/Y gnd OAI21X1_394/Y vdd OAI21X1
XINVX1_425 INVX1_425/A gnd INVX1_425/Y vdd INVX1
XINVX1_414 INVX1_414/A gnd INVX1_414/Y vdd INVX1
XINVX1_458 INVX1_458/A gnd INVX1_458/Y vdd INVX1
XINVX1_447 INVX1_447/A gnd INVX1_447/Y vdd INVX1
XINVX1_469 INVX1_469/A gnd INVX1_469/Y vdd INVX1
XINVX1_436 INVX1_436/A gnd INVX1_436/Y vdd INVX1
XFILL_32_3_1 gnd vdd FILL
XOAI21X1_1613 BUFX4_97/Y NAND2X1_843/Y OAI21X1_1612/Y gnd OAI21X1_1613/Y vdd OAI21X1
XOAI21X1_1624 INVX1_398/Y NOR2X1_358/Y NAND2X1_850/Y gnd OAI21X1_1624/Y vdd OAI21X1
XOAI21X1_1602 BUFX4_151/Y BUFX4_345/Y NAND2X1_217/B gnd OAI21X1_1602/Y vdd OAI21X1
XOAI21X1_1646 BUFX4_168/Y BUFX4_343/Y INVX1_400/A gnd OAI21X1_1647/C vdd OAI21X1
XOAI21X1_1657 BUFX4_305/Y NAND2X1_861/Y OAI21X1_1657/C gnd OAI21X1_1657/Y vdd OAI21X1
XOAI21X1_1635 NAND2X1_860/Y BUFX4_129/Y OAI21X1_1634/Y gnd DFFPOSX1_305/D vdd OAI21X1
XOAI21X1_1679 BUFX4_109/Y NAND2X1_871/Y OAI21X1_1679/C gnd DFFPOSX1_339/D vdd OAI21X1
XOAI21X1_1668 INVX1_145/Y NOR2X1_378/Y NAND2X1_865/Y gnd OAI21X1_1668/Y vdd OAI21X1
XFILL_23_3_1 gnd vdd FILL
XFILL_6_4_1 gnd vdd FILL
XMUX2X1_18 MUX2X1_18/A MUX2X1_18/B BUFX4_190/Y gnd MUX2X1_20/B vdd MUX2X1
XMUX2X1_29 MUX2X1_29/A MUX2X1_29/B BUFX4_199/Y gnd MUX2X1_29/Y vdd MUX2X1
XFILL_14_3_1 gnd vdd FILL
XAOI22X1_1 AOI22X1_1/A AOI22X1_1/B AOI22X1_1/C AOI22X1_1/D gnd NAND3X1_1/C vdd AOI22X1
XINVX1_200 INVX1_200/A gnd INVX1_200/Y vdd INVX1
XOAI21X1_191 BUFX4_147/Y BUFX4_133/Y OAI21X1_191/C gnd OAI21X1_191/Y vdd OAI21X1
XOAI21X1_180 BUFX4_98/Y NAND2X1_21/Y OAI21X1_180/C gnd OAI21X1_180/Y vdd OAI21X1
XINVX1_244 INVX1_244/A gnd INVX1_244/Y vdd INVX1
XINVX1_211 INVX1_211/A gnd INVX1_211/Y vdd INVX1
XINVX1_233 INVX1_233/A gnd INVX1_233/Y vdd INVX1
XINVX1_222 INVX1_222/A gnd INVX1_222/Y vdd INVX1
XINVX1_266 INVX1_266/A gnd INVX1_266/Y vdd INVX1
XINVX1_255 INVX1_255/A gnd INVX1_255/Y vdd INVX1
XINVX1_277 INVX1_277/A gnd INVX1_277/Y vdd INVX1
XINVX1_299 INVX1_299/A gnd INVX1_299/Y vdd INVX1
XINVX1_288 INVX1_288/A gnd INVX1_288/Y vdd INVX1
XNAND2X1_22 INVX8_11/A INVX1_1/Y gnd NAND2X1_22/Y vdd NAND2X1
XNAND2X1_33 INVX8_4/A NOR2X1_21/Y gnd NAND2X1_33/Y vdd NAND2X1
XNAND2X1_11 BUFX4_326/Y NOR2X1_1/Y gnd NAND2X1_11/Y vdd NAND2X1
XNAND2X1_77 INVX2_3/Y INVX8_12/A gnd NAND2X1_77/Y vdd NAND2X1
XNAND2X1_44 BUFX4_329/Y NOR2X1_31/Y gnd NAND2X1_44/Y vdd NAND2X1
XNAND2X1_55 BUFX4_330/Y NOR2X1_41/Y gnd NAND2X1_55/Y vdd NAND2X1
XNAND2X1_66 INVX2_2/Y INVX4_3/Y gnd NAND2X1_66/Y vdd NAND2X1
XNAND2X1_88 INVX8_6/A NOR2X1_71/Y gnd NAND2X1_88/Y vdd NAND2X1
XNAND2X1_99 INVX8_10/A INVX1_2/Y gnd NAND2X1_99/Y vdd NAND2X1
XAOI21X1_215 BUFX4_131/Y NOR2X1_265/Y NOR2X1_266/Y gnd DFFPOSX1_41/D vdd AOI21X1
XAOI21X1_204 AOI21X1_204/A AOI21X1_204/B INVX2_6/Y gnd OAI21X1_827/B vdd AOI21X1
XAOI21X1_237 BUFX4_282/Y NOR2X1_289/B NOR2X1_292/Y gnd DFFPOSX1_63/D vdd AOI21X1
XAOI21X1_226 BUFX4_304/Y NOR2X1_279/B NOR2X1_279/Y gnd AOI21X1_226/Y vdd AOI21X1
XAOI21X1_248 BUFX4_422/Y NOR2X1_315/B NOR2X1_313/Y gnd AOI21X1_248/Y vdd AOI21X1
XAOI22X1_42 AOI22X1_42/A BUFX4_349/Y BUFX4_156/Y MUX2X1_204/Y gnd AOI22X1_42/Y vdd
+ AOI22X1
XAOI22X1_31 AOI22X1_31/A BUFX4_323/Y BUFX4_288/Y MUX2X1_150/Y gnd AOI22X1_31/Y vdd
+ AOI22X1
XAOI22X1_20 MUX2X1_93/Y BUFX4_354/Y BUFX4_155/Y MUX2X1_96/Y gnd AOI22X1_20/Y vdd AOI22X1
XAOI21X1_259 BUFX4_397/Y NOR2X1_325/B NOR2X1_327/Y gnd AOI21X1_259/Y vdd AOI21X1
XAOI22X1_75 AOI22X1_75/A BUFX4_352/Y BUFX4_157/Y MUX2X1_360/Y gnd AOI22X1_75/Y vdd
+ AOI22X1
XAOI22X1_53 AOI22X1_53/A BUFX4_320/Y INVX1_11/A AOI22X1_53/D gnd AOI22X1_53/Y vdd
+ AOI22X1
XAOI22X1_64 AOI22X1_64/A AOI22X1_9/A NAND2X1_5/B AOI22X1_64/D gnd AOI22X1_64/Y vdd
+ AOI22X1
XOAI21X1_1432 BUFX4_304/Y NAND2X1_815/Y OAI21X1_1431/Y gnd OAI21X1_1432/Y vdd OAI21X1
XOAI21X1_1421 BUFX4_460/Y BUFX4_388/Y INVX1_389/A gnd OAI21X1_1422/C vdd OAI21X1
XOAI21X1_1410 BUFX4_125/Y NAND2X1_814/Y OAI21X1_1409/Y gnd OAI21X1_1410/Y vdd OAI21X1
XOAI21X1_1465 BUFX4_167/Y INVX2_8/A INVX1_264/A gnd OAI21X1_1465/Y vdd OAI21X1
XOAI21X1_1443 INVX1_134/Y NOR2X1_321/Y NAND2X1_818/Y gnd DFFPOSX1_147/D vdd OAI21X1
XOAI21X1_1454 INVX1_327/Y NOR2X1_331/Y NAND2X1_829/Y gnd OAI21X1_1454/Y vdd OAI21X1
XOAI21X1_1487 BUFX4_417/Y BUFX4_392/Y NAND2X1_697/B gnd OAI21X1_1487/Y vdd OAI21X1
XOAI21X1_1476 BUFX4_420/Y NAND2X1_833/Y OAI21X1_1476/C gnd OAI21X1_1476/Y vdd OAI21X1
XOAI21X1_1498 BUFX4_402/Y NAND2X1_834/Y OAI21X1_1498/C gnd OAI21X1_1498/Y vdd OAI21X1
XDFFPOSX1_1017 MUX2X1_26/A CLKBUF1_66/Y AOI21X1_187/Y gnd vdd DFFPOSX1
XDFFPOSX1_1006 NOR2X1_225/A CLKBUF1_79/Y AOI21X1_183/Y gnd vdd DFFPOSX1
XDFFPOSX1_1028 BUFX2_4/A CLKBUF1_65/Y NAND2X1_478/Y gnd vdd DFFPOSX1
XFILL_46_2_1 gnd vdd FILL
XDFFPOSX1_307 INVX1_144/A CLKBUF1_32/Y DFFPOSX1_307/D gnd vdd DFFPOSX1
XDFFPOSX1_329 NOR2X1_380/A CLKBUF1_6/Y AOI21X1_302/Y gnd vdd DFFPOSX1
XDFFPOSX1_318 NAND2X1_568/B CLKBUF1_53/Y DFFPOSX1_318/D gnd vdd DFFPOSX1
XFILL_37_2_1 gnd vdd FILL
XBUFX4_350 BUFX4_354/A gnd BUFX4_350/Y vdd BUFX4
XBUFX4_361 a[2] gnd MUX2X1_84/S vdd BUFX4
XBUFX4_372 INVX8_9/Y gnd BUFX4_372/Y vdd BUFX4
XBUFX4_383 BUFX4_385/A gnd NOR2X1_61/A vdd BUFX4
XBUFX4_394 INVX8_6/Y gnd BUFX4_394/Y vdd BUFX4
XOAI21X1_905 INVX1_117/Y BUFX4_196/Y NAND2X1_331/Y gnd MUX2X1_85/B vdd OAI21X1
XOAI21X1_916 INVX1_128/Y BUFX4_218/Y OAI21X1_916/C gnd MUX2X1_92/A vdd OAI21X1
XOAI21X1_949 INVX1_161/Y MUX2X1_9/S NAND2X1_379/Y gnd MUX2X1_118/B vdd OAI21X1
XOAI21X1_927 INVX1_139/Y BUFX4_240/Y NAND2X1_355/Y gnd MUX2X1_101/B vdd OAI21X1
XFILL_20_1_1 gnd vdd FILL
XOAI21X1_938 INVX1_150/Y BUFX4_262/Y NAND2X1_367/Y gnd MUX2X1_109/A vdd OAI21X1
XOAI21X1_1240 INVX1_452/Y BUFX4_272/Y NAND2X1_693/Y gnd MUX2X1_335/A vdd OAI21X1
XDFFPOSX1_841 MUX2X1_8/A CLKBUF1_7/Y OAI21X1_639/Y gnd vdd DFFPOSX1
XOAI21X1_1273 INVX1_485/Y BUFX4_239/Y NAND2X1_728/Y gnd MUX2X1_361/B vdd OAI21X1
XDFFPOSX1_830 NOR2X1_141/A CLKBUF1_40/Y AOI21X1_113/Y gnd vdd DFFPOSX1
XOAI21X1_1262 INVX1_474/Y BUFX4_217/Y NAND2X1_716/Y gnd MUX2X1_352/A vdd OAI21X1
XOAI21X1_1251 INVX1_463/Y BUFX4_195/Y NAND2X1_705/Y gnd MUX2X1_344/B vdd OAI21X1
XDFFPOSX1_863 NOR2X1_153/A CLKBUF1_95/Y AOI21X1_123/Y gnd vdd DFFPOSX1
XOAI21X1_1295 INVX1_507/Y MUX2X1_8/S NAND2X1_751/Y gnd MUX2X1_377/B vdd OAI21X1
XOAI21X1_1284 INVX1_496/Y BUFX4_261/Y NAND2X1_740/Y gnd MUX2X1_368/A vdd OAI21X1
XDFFPOSX1_852 INVX1_242/A CLKBUF1_54/Y OAI21X1_656/Y gnd vdd DFFPOSX1
XDFFPOSX1_874 NOR2X1_159/A CLKBUF1_13/Y AOI21X1_127/Y gnd vdd DFFPOSX1
XDFFPOSX1_896 NOR2X1_176/A CLKBUF1_81/Y AOI21X1_142/Y gnd vdd DFFPOSX1
XDFFPOSX1_885 INVX1_308/A CLKBUF1_53/Y OAI21X1_671/Y gnd vdd DFFPOSX1
XFILL_3_2_1 gnd vdd FILL
XFILL_28_2_1 gnd vdd FILL
XFILL_11_1_1 gnd vdd FILL
XFILL_19_2_1 gnd vdd FILL
XDFFPOSX1_115 INVX1_132/A CLKBUF1_17/Y OAI21X1_1382/Y gnd vdd DFFPOSX1
XDFFPOSX1_137 NAND2X1_247/B CLKBUF1_98/Y OAI21X1_1426/Y gnd vdd DFFPOSX1
XDFFPOSX1_104 INVX1_451/A CLKBUF1_25/Y OAI21X1_1376/Y gnd vdd DFFPOSX1
XDFFPOSX1_126 NAND2X1_555/B CLKBUF1_55/Y OAI21X1_1404/Y gnd vdd DFFPOSX1
XDFFPOSX1_148 INVX1_198/A CLKBUF1_61/Y OAI21X1_1444/Y gnd vdd DFFPOSX1
XDFFPOSX1_159 NOR2X1_329/A CLKBUF1_98/Y AOI21X1_261/Y gnd vdd DFFPOSX1
XNAND2X1_207 BUFX4_136/Y NOR2X1_228/Y gnd OAI21X1_797/C vdd NAND2X1
XNAND2X1_218 BUFX4_207/Y OAI21X1_17/C gnd NAND2X1_218/Y vdd NAND2X1
XNAND2X1_229 BUFX4_223/Y NAND2X1_229/B gnd NAND2X1_229/Y vdd NAND2X1
XBUFX4_191 BUFX4_28/Y gnd BUFX4_191/Y vdd BUFX4
XBUFX4_180 BUFX4_27/Y gnd MUX2X1_1/S vdd BUFX4
XNOR2X1_251 BUFX4_362/Y BUFX4_80/Y gnd AOI22X1_1/C vdd NOR2X1
XNOR2X1_240 a[4] INVX1_7/Y gnd BUFX4_155/A vdd NOR2X1
XNOR2X1_273 NOR2X1_273/A NOR2X1_265/Y gnd NOR2X1_273/Y vdd NOR2X1
XNOR2X1_262 NOR2X1_262/A NOR2X1_256/B gnd NOR2X1_262/Y vdd NOR2X1
XNOR2X1_284 NAND3X1_7/Y INVX1_509/Y gnd NOR2X1_284/Y vdd NOR2X1
XNOR2X1_295 INVX4_2/Y NOR2X1_255/A gnd INVX8_11/A vdd NOR2X1
XOAI21X1_713 INVX1_502/Y NOR2X1_177/Y OAI21X1_713/C gnd OAI21X1_713/Y vdd OAI21X1
XOAI21X1_702 BUFX4_98/Y OAI21X1_704/B OAI21X1_702/C gnd OAI21X1_702/Y vdd OAI21X1
XOAI21X1_724 INVX1_312/Y NOR2X1_199/Y NAND2X1_193/Y gnd OAI21X1_724/Y vdd OAI21X1
XOAI21X1_746 NOR2X1_72/B BUFX4_441/Y NAND2X1_335/B gnd OAI21X1_747/C vdd OAI21X1
XOAI21X1_735 BUFX4_302/Y OAI21X1_729/B OAI21X1_735/C gnd OAI21X1_735/Y vdd OAI21X1
XOAI21X1_757 BUFX4_281/Y OAI21X1_757/B OAI21X1_757/C gnd OAI21X1_757/Y vdd OAI21X1
XOAI21X1_779 BUFX4_419/Y NAND2X1_201/Y OAI21X1_779/C gnd OAI21X1_779/Y vdd OAI21X1
XOAI21X1_768 BUFX4_409/Y BUFX4_442/Y INVX1_314/A gnd OAI21X1_769/C vdd OAI21X1
XMUX2X1_202 MUX2X1_202/A MUX2X1_202/B BUFX4_81/Y gnd MUX2X1_202/Y vdd MUX2X1
XMUX2X1_213 MUX2X1_213/A MUX2X1_213/B MUX2X1_48/S gnd AOI22X1_45/A vdd MUX2X1
XMUX2X1_246 MUX2X1_245/Y MUX2X1_244/Y MUX2X1_48/S gnd MUX2X1_246/Y vdd MUX2X1
XMUX2X1_235 MUX2X1_235/A MUX2X1_235/B BUFX4_50/Y gnd MUX2X1_235/Y vdd MUX2X1
XOAI21X1_1070 INVX1_282/Y BUFX4_229/Y NAND2X1_509/Y gnd MUX2X1_208/A vdd OAI21X1
XMUX2X1_224 MUX2X1_224/A MUX2X1_224/B BUFX4_81/Y gnd MUX2X1_224/Y vdd MUX2X1
XOAI21X1_1081 INVX1_293/Y BUFX4_251/Y NAND2X1_521/Y gnd MUX2X1_217/B vdd OAI21X1
XDFFPOSX1_693 INVX1_296/A CLKBUF1_47/Y OAI21X1_490/Y gnd vdd DFFPOSX1
XDFFPOSX1_660 INVX1_230/A CLKBUF1_96/Y OAI21X1_424/Y gnd vdd DFFPOSX1
XOAI21X1_1092 INVX1_304/Y BUFX4_273/Y NAND2X1_533/Y gnd MUX2X1_224/A vdd OAI21X1
XDFFPOSX1_682 NAND2X1_316/B CLKBUF1_99/Y OAI21X1_468/Y gnd vdd DFFPOSX1
XMUX2X1_279 MUX2X1_279/A MUX2X1_279/B MUX2X1_48/S gnd MUX2X1_279/Y vdd MUX2X1
XDFFPOSX1_671 OAI21X1_445/C CLKBUF1_58/Y OAI21X1_446/Y gnd vdd DFFPOSX1
XMUX2X1_257 MUX2X1_257/A MUX2X1_257/B BUFX4_51/Y gnd MUX2X1_258/A vdd MUX2X1
XMUX2X1_268 MUX2X1_268/A MUX2X1_268/B BUFX4_80/Y gnd MUX2X1_270/B vdd MUX2X1
XNAND2X1_730 BUFX4_242/Y NAND2X1_730/B gnd NAND2X1_730/Y vdd NAND2X1
XNAND2X1_752 MUX2X1_9/S NOR2X1_238/A gnd NAND2X1_752/Y vdd NAND2X1
XNAND2X1_763 BUFX4_428/Y NOR2X1_254/Y gnd NAND2X1_763/Y vdd NAND2X1
XNAND2X1_741 BUFX4_262/Y NAND2X1_741/B gnd NAND2X1_741/Y vdd NAND2X1
XNAND2X1_796 BUFX4_332/Y NOR2X1_297/Y gnd NAND2X1_796/Y vdd NAND2X1
XNAND2X1_774 BUFX4_188/Y AOI22X1_1/B gnd NOR2X1_265/B vdd NAND2X1
XNAND2X1_785 NAND2X1_8/A NOR2X1_284/Y gnd NAND2X1_785/Y vdd NAND2X1
XFILL_43_0_1 gnd vdd FILL
XBUFX4_20 BUFX4_70/Y gnd BUFX4_20/Y vdd BUFX4
XBUFX4_31 a[0] gnd BUFX4_31/Y vdd BUFX4
XBUFX4_42 BUFX4_41/A gnd BUFX4_42/Y vdd BUFX4
XBUFX4_53 BUFX4_52/A gnd BUFX4_53/Y vdd BUFX4
XBUFX4_64 BUFX4_64/A gnd BUFX4_64/Y vdd BUFX4
XBUFX4_75 a[1] gnd BUFX4_75/Y vdd BUFX4
XBUFX4_86 BUFX4_84/A gnd BUFX4_86/Y vdd BUFX4
XBUFX4_97 INVX8_7/Y gnd BUFX4_97/Y vdd BUFX4
XFILL_34_0_1 gnd vdd FILL
XFILL_10_1 gnd vdd FILL
XFILL_25_0_1 gnd vdd FILL
XFILL_0_0_1 gnd vdd FILL
XINVX8_12 INVX8_12/A gnd INVX8_12/Y vdd INVX8
XINVX1_7 a[3] gnd INVX1_7/Y vdd INVX1
XOAI21X1_510 BUFX4_284/Y NAND2X1_97/Y OAI21X1_510/C gnd OAI21X1_510/Y vdd OAI21X1
XOAI21X1_532 BUFX4_418/Y OAI21X1_544/B OAI21X1_532/C gnd OAI21X1_532/Y vdd OAI21X1
XOAI21X1_521 BUFX4_461/Y INVX1_2/A INVX1_297/A gnd OAI21X1_522/C vdd OAI21X1
XOAI21X1_565 INVX1_300/Y NOR2X1_101/Y OAI21X1_565/C gnd OAI21X1_565/Y vdd OAI21X1
XOAI21X1_554 INVX1_107/Y NOR2X1_91/Y OAI21X1_554/C gnd OAI21X1_554/Y vdd OAI21X1
XOAI21X1_543 BUFX4_153/Y BUFX4_293/Y OAI21X1_543/C gnd OAI21X1_543/Y vdd OAI21X1
XOAI21X1_587 BUFX4_148/Y BUFX4_107/Y OAI21X1_587/C gnd OAI21X1_588/C vdd OAI21X1
XOAI21X1_598 BUFX4_281/Y OAI21X1_590/B OAI21X1_598/C gnd OAI21X1_598/Y vdd OAI21X1
XOAI21X1_576 BUFX4_298/Y OAI21X1_584/B OAI21X1_576/C gnd OAI21X1_576/Y vdd OAI21X1
XDFFPOSX1_490 NOR2X1_24/A CLKBUF1_37/Y AOI21X1_18/Y gnd vdd DFFPOSX1
XFILL_8_1_1 gnd vdd FILL
XNAND2X1_571 BUFX4_243/Y OAI21X1_27/C gnd NAND2X1_571/Y vdd NAND2X1
XNAND2X1_560 BUFX4_223/Y NAND2X1_560/B gnd NAND2X1_560/Y vdd NAND2X1
XNAND2X1_593 MUX2X1_11/S NAND2X1_593/B gnd NAND2X1_593/Y vdd NAND2X1
XNAND2X1_582 BUFX4_263/Y OAI21X1_251/C gnd NAND2X1_582/Y vdd NAND2X1
XFILL_45_8_0 gnd vdd FILL
XFILL_16_0_1 gnd vdd FILL
XFILL_36_8_0 gnd vdd FILL
XFILL_2_8_0 gnd vdd FILL
XFILL_27_8_0 gnd vdd FILL
XFILL_10_7_0 gnd vdd FILL
XOAI21X1_340 BUFX4_102/Y NAND2X1_78/Y OAI21X1_339/Y gnd OAI21X1_340/Y vdd OAI21X1
XOAI21X1_362 BUFX4_123/Y NAND2X1_80/Y OAI21X1_362/C gnd OAI21X1_362/Y vdd OAI21X1
XOAI21X1_373 BUFX4_370/Y BUFX4_384/Y NAND2X1_657/B gnd OAI21X1_373/Y vdd OAI21X1
XOAI21X1_351 BUFX4_307/Y BUFX4_387/Y INVX1_227/A gnd OAI21X1_351/Y vdd OAI21X1
XOAI21X1_384 NAND2X1_81/Y BUFX4_303/Y OAI21X1_383/Y gnd OAI21X1_384/Y vdd OAI21X1
XOAI21X1_395 BUFX4_415/Y BUFX4_386/Y NAND2X1_313/B gnd OAI21X1_396/C vdd OAI21X1
XINVX1_404 INVX1_404/A gnd INVX1_404/Y vdd INVX1
XINVX1_426 INVX1_426/A gnd INVX1_426/Y vdd INVX1
XINVX1_415 INVX1_415/A gnd INVX1_415/Y vdd INVX1
XINVX1_437 INVX1_437/A gnd INVX1_437/Y vdd INVX1
XINVX1_459 INVX1_459/A gnd INVX1_459/Y vdd INVX1
XINVX1_448 INVX1_448/A gnd INVX1_448/Y vdd INVX1
XNAND2X1_390 BUFX4_206/Y NOR2X1_105/A gnd OAI21X1_960/C vdd NAND2X1
XFILL_18_8_0 gnd vdd FILL
XOAI21X1_1614 NOR2X1_2/B BUFX4_345/Y NAND2X1_634/B gnd OAI21X1_1614/Y vdd OAI21X1
XOAI21X1_1603 BUFX4_125/Y NAND2X1_843/Y OAI21X1_1602/Y gnd OAI21X1_1603/Y vdd OAI21X1
XOAI21X1_1647 NAND2X1_860/Y BUFX4_286/Y OAI21X1_1647/C gnd DFFPOSX1_311/D vdd OAI21X1
XOAI21X1_1636 BUFX4_166/Y BUFX4_345/Y INVX1_80/A gnd OAI21X1_1637/C vdd OAI21X1
XOAI21X1_1625 INVX1_462/Y NOR2X1_358/Y NAND2X1_851/Y gnd DFFPOSX1_280/D vdd OAI21X1
XOAI21X1_1669 INVX1_209/Y NOR2X1_378/Y NAND2X1_866/Y gnd DFFPOSX1_324/D vdd OAI21X1
XOAI21X1_1658 BUFX4_416/Y INVX2_10/A NAND2X1_499/B gnd OAI21X1_1658/Y vdd OAI21X1
XMUX2X1_19 MUX2X1_19/A MUX2X1_19/B BUFX4_191/Y gnd MUX2X1_19/Y vdd MUX2X1
XFILL_42_6_0 gnd vdd FILL
XAOI22X1_2 AOI22X1_2/A AOI22X1_1/B AOI22X1_1/C AOI22X1_2/D gnd AOI22X1_2/Y vdd AOI22X1
XINVX1_201 INVX1_201/A gnd INVX1_201/Y vdd INVX1
XOAI21X1_192 BUFX4_301/Y NAND2X1_22/Y OAI21X1_191/Y gnd OAI21X1_192/Y vdd OAI21X1
XOAI21X1_181 NOR2X1_61/B BUFX4_133/Y INVX1_409/A gnd OAI21X1_181/Y vdd OAI21X1
XOAI21X1_170 AOI21X1_1/A NAND2X1_21/Y OAI21X1_169/Y gnd OAI21X1_170/Y vdd OAI21X1
XINVX1_223 INVX1_223/A gnd INVX1_223/Y vdd INVX1
XINVX1_212 INVX1_212/A gnd INVX1_212/Y vdd INVX1
XINVX1_234 INVX1_234/A gnd INVX1_234/Y vdd INVX1
XINVX1_267 INVX1_267/A gnd INVX1_267/Y vdd INVX1
XINVX1_245 INVX1_245/A gnd INVX1_245/Y vdd INVX1
XINVX1_256 INVX1_256/A gnd INVX1_256/Y vdd INVX1
XINVX1_289 INVX1_289/A gnd INVX1_289/Y vdd INVX1
XINVX1_278 INVX1_278/A gnd INVX1_278/Y vdd INVX1
XNAND2X1_23 BUFX4_162/Y NOR2X1_11/Y gnd NAND2X1_23/Y vdd NAND2X1
XNAND2X1_34 INVX8_5/A NOR2X1_21/Y gnd NAND2X1_34/Y vdd NAND2X1
XNAND2X1_12 BUFX4_136/Y NOR2X1_1/Y gnd OAI21X1_71/C vdd NAND2X1
XNAND2X1_45 BUFX4_139/Y NOR2X1_31/Y gnd NAND2X1_45/Y vdd NAND2X1
XNAND2X1_56 BUFX4_140/Y NOR2X1_41/Y gnd NAND2X1_56/Y vdd NAND2X1
XNAND2X1_67 INVX8_16/A INVX2_2/Y gnd NAND2X1_67/Y vdd NAND2X1
XNAND2X1_78 INVX2_3/Y INVX8_13/A gnd NAND2X1_78/Y vdd NAND2X1
XNAND2X1_89 INVX8_7/A NOR2X1_71/Y gnd NAND2X1_89/Y vdd NAND2X1
XFILL_33_6_0 gnd vdd FILL
XAOI21X1_216 BUFX4_426/Y NOR2X1_265/Y NOR2X1_267/Y gnd AOI21X1_216/Y vdd AOI21X1
XAOI21X1_205 AOI21X1_205/A AOI21X1_205/B MUX2X1_96/S gnd OAI21X1_832/A vdd AOI21X1
XAOI21X1_227 BUFX4_395/Y NOR2X1_279/B NOR2X1_280/Y gnd AOI21X1_227/Y vdd AOI21X1
XAOI21X1_238 BUFX4_376/Y NOR2X1_289/B NOR2X1_293/Y gnd DFFPOSX1_64/D vdd AOI21X1
XAOI21X1_249 BUFX4_112/Y NOR2X1_315/B NOR2X1_314/Y gnd AOI21X1_249/Y vdd AOI21X1
XAOI22X1_32 AOI22X1_32/A AOI22X1_7/B BUFX4_159/Y MUX2X1_156/Y gnd AOI22X1_32/Y vdd
+ AOI22X1
XAOI22X1_10 MUX2X1_45/Y BUFX4_349/Y BUFX4_156/Y MUX2X1_48/Y gnd AOI22X1_10/Y vdd AOI22X1